[Format]      =  4.0
[Frequency]   =  0
[Precision]   =  1e-008
[MinAngle]    =  30
[DoSmartMesh] =  1
[Depth]       =  40
[LengthUnits] =  centimeters
[ProblemType] =  planar
[Coordinates] =  cartesian
[ACSolver]    =  0
[PrevType]    =  0
[PrevSoln]    =  ""
[Comment]     =  "Add comments here."
[PointProps]   = 0
[BdryProps]   = 0
[BlockProps]  = 4
  <BeginBlock>
    <BlockName> = "Pure Iron"
    <Mu_x> = 14872
    <Mu_y> = 14872
    <H_c> = 0
    <H_cAngle> = 0
    <J_re> = 0
    <J_im> = 0
    <Sigma> = 10.44
    <d_lam> = 0
    <Phi_h> = 0
    <Phi_hx> = 0
    <Phi_hy> = 0
    <LamType> = 0
    <LamFill> = 1
    <NStrands> = 0
    <WireD> = 0
    <BHPoints> = 21
      0	0
      0.22706499999999999	13.898400000000001
      0.45412999999999998	27.796700000000001
      0.68119499999999999	42.397399999999998
      0.90825999999999996	61.415700000000001
      1.13533	82.382400000000004
      1.36239	144.66900000000001
      1.58935	897.75999999999999
      1.81236	4581.7399999999998
      2.01004	17736.200000000001
      2.1331600000000002	41339.300000000003
      2.1999900000000001	68321.800000000003
      2.2547899999999998	95685.5
      2.2999299999999998	123355
      2.3425099999999999	151083
      2.3787600000000002	178954
      2.4150100000000001	206825
      2.45126	234696
      2.4874999999999998	262568
      2.5237500000000002	290439
      2.5600000000000001	318310
  <EndBlock>
  <BeginBlock>
    <BlockName> = "Air"
    <Mu_x> = 1
    <Mu_y> = 1
    <H_c> = 0
    <H_cAngle> = 0
    <J_re> = 0
    <J_im> = 0
    <Sigma> = 0
    <d_lam> = 0
    <Phi_h> = 0
    <Phi_hx> = 0
    <Phi_hy> = 0
    <LamType> = 0
    <LamFill> = 1
    <NStrands> = 0
    <WireD> = 0
    <BHPoints> = 0
  <EndBlock>
  <BeginBlock>
    <BlockName> = "0.2mm"
    <Mu_x> = 1
    <Mu_y> = 1
    <H_c> = 0
    <H_cAngle> = 0
    <J_re> = 0
    <J_im> = 0
    <Sigma> = 58
    <d_lam> = 0
    <Phi_h> = 0
    <Phi_hx> = 0
    <Phi_hy> = 0
    <LamType> = 3
    <LamFill> = 1
    <NStrands> = 1
    <WireD> = 0.20000000000000001
    <BHPoints> = 0
  <EndBlock>
  <BeginBlock>
    <BlockName> = "N52"
    <Mu_x> = 1.05
    <Mu_y> = 1.05
    <H_c> = 956180
    <H_cAngle> = 0
    <J_re> = 0
    <J_im> = 0
    <Sigma> = 0.66700000000000004
    <d_lam> = 0
    <Phi_h> = 0
    <Phi_hx> = 0
    <Phi_hy> = 0
    <LamType> = 0
    <LamFill> = 1
    <NStrands> = 0
    <WireD> = 0
    <BHPoints> = 8
      0	0
      0.073200000000000001	7484
      0.1464	18446
      0.2195	37084
      0.29270000000000002	72766
      0.3659	124571
      0.43909999999999999	179757
      1.4636	956180
  <EndBlock>
[CircuitProps]  = 0
[NumPoints] = 3520
180	484	0	0
180	490	0	0
180	496	0	0
180	502	0	0
180	508	0	0
180	514	0	0
181	520	0	0
181	526	0	0
181.80000000000001	532	0	0
182.19999999999999	538	0	0
183	544	0	0
184	550	0	0
185	556	0	0
186	562	0	0
187.19999999999999	568	0	0
188.59999999999999	574	0	0
190.19999999999999	580	0	0
191.80000000000001	586	0	0
193.59999999999999	592	0	0
195.40000000000001	598	0	0
197.40000000000001	604	0	0
199.59999999999999	610	0	0
201.59999999999999	616	0	0
204.19999999999999	622	0	0
206.80000000000001	628	0	0
209.19999999999999	634	0	0
212.19999999999999	640	0	0
215.19999999999999	646	0	0
218.40000000000001	652	0	0
221.80000000000001	658	0	0
225.40000000000001	664	0	0
228.80000000000001	670	0	0
232.59999999999999	676	0	0
236.40000000000001	681.60000000000002	0	0
240.59999999999999	687.20000000000005	0	0
244.59999999999999	693	0	0
248.40000000000001	698	0	0
252.59999999999999	703	0	0
256.60000000000002	707.79999999999995	0	0
261	713	0	0
265.39999999999998	717.60000000000002	0	0
269.60000000000002	722	0	0
274	726.79999999999995	0	0
278.60000000000002	731.20000000000005	0	0
283.19999999999999	735.39999999999998	0	0
288	739.79999999999995	0	0
293	744.20000000000005	0	0
298	748.20000000000005	0	0
303	752.39999999999998	0	0
308	756.20000000000005	0	0
313.60000000000002	760	0	0
319.19999999999999	764.20000000000005	0	0
325	768	0	0
331	771.79999999999995	0	0
337	775.20000000000005	0	0
343	778.79999999999995	0	0
349	782.20000000000005	0	0
355	785.20000000000005	0	0
361	788.20000000000005	0	0
367	791.20000000000005	0	0
373	793.60000000000002	0	0
379	796.20000000000005	0	0
385	798.60000000000002	0	0
391	800.79999999999995	0	0
397	803	0	0
403	805	0	0
409	806.60000000000002	0	0
415	808.39999999999998	0	0
421	810.20000000000005	0	0
427	811.60000000000002	0	0
433	813	0	0
439	814.20000000000005	0	0
445	815.20000000000005	0	0
451	816.20000000000005	0	0
457	817	0	0
463	818	0	0
469	818.39999999999998	0	0
475	819	0	0
481	819.20000000000005	0	0
487	820	0	0
493	820	0	0
499	820	0	0
505	820	0	0
511	820	0	0
517	819.60000000000002	0	0
523	819	0	0
529	818.79999999999995	0	0
535	818	0	0
541	817.20000000000005	0	0
547	816.60000000000002	0	0
553	815.60000000000002	0	0
559	814.60000000000002	0	0
565	813.39999999999998	0	0
571	812.20000000000005	0	0
577	810.60000000000002	0	0
583	809	0	0
589	807.39999999999998	0	0
595	805.60000000000002	0	0
601	803.60000000000002	0	0
607	801.60000000000002	0	0
613	799.39999999999998	0	0
619	797.20000000000005	0	0
625	794.39999999999998	0	0
631	792	0	0
637	789.20000000000005	0	0
643	786.20000000000005	0	0
649	783.20000000000005	0	0
655	779.79999999999995	0	0
661	776.39999999999998	0	0
667	772.79999999999995	0	0
673	769.39999999999998	0	0
678	766	0	0
683.20000000000005	762.39999999999998	0	0
689	758.20000000000005	0	0
694	754.60000000000002	0	0
699	750.79999999999995	0	0
704	746.60000000000002	0	0
708.60000000000002	742.60000000000002	0	0
714	738	0	0
719.20000000000005	733.39999999999998	0	0
723.39999999999998	729	0	0
728.39999999999998	724.20000000000005	0	0
732.60000000000002	719.79999999999995	0	0
737	715	0	0
741.39999999999998	710.20000000000005	0	0
745.79999999999995	705	0	0
750	700	0	0
753.79999999999995	695	0	0
757.60000000000002	690	0	0
761.20000000000005	684.79999999999995	0	0
765.39999999999998	679	0	0
769.39999999999998	673	0	0
772.79999999999995	667	0	0
776.39999999999998	661	0	0
779.79999999999995	655	0	0
783.20000000000005	649	0	0
786.20000000000005	643	0	0
789.20000000000005	637	0	0
792	631	0	0
794.39999999999998	625	0	0
797.20000000000005	619	0	0
799.39999999999998	613	0	0
801.60000000000002	607	0	0
803.60000000000002	601	0	0
805.60000000000002	595	0	0
807.39999999999998	589	0	0
809	583	0	0
810.60000000000002	577	0	0
812.20000000000005	571	0	0
813.39999999999998	565	0	0
814.60000000000002	559	0	0
815.60000000000002	553	0	0
816.60000000000002	547	0	0
817.20000000000005	541	0	0
818	535	0	0
818.79999999999995	529	0	0
819	523	0	0
819.60000000000002	517	0	0
820	511	0	0
820	505	0	0
820	499	0	0
820	493	0	0
820	487	0	0
819.20000000000005	481	0	0
819	475	0	0
818.39999999999998	469	0	0
818	463	0	0
817	457	0	0
816.20000000000005	451	0	0
815.20000000000005	445	0	0
814.20000000000005	439	0	0
813	433	0	0
811.60000000000002	427	0	0
810.20000000000005	421	0	0
808.39999999999998	415	0	0
806.60000000000002	409	0	0
805	403	0	0
803	397	0	0
800.79999999999995	391	0	0
798.60000000000002	385	0	0
796.20000000000005	379	0	0
793.60000000000002	373	0	0
791.20000000000005	367	0	0
788.20000000000005	361	0	0
785.20000000000005	355	0	0
782.20000000000005	349	0	0
778.79999999999995	343	0	0
775.20000000000005	337	0	0
771.79999999999995	331	0	0
768	325	0	0
764.20000000000005	319.19999999999999	0	0
760.60000000000002	314.39999999999998	0	0
756.79999999999995	309	0	0
753.20000000000005	304	0	0
749	299	0	0
745	294	0	0
740.60000000000002	289	0	0
736.20000000000005	284	0	0
731.79999999999995	279.39999999999998	0	0
727.60000000000002	275	0	0
722.60000000000002	270.39999999999998	0	0
718.39999999999998	266	0	0
713	261	0	0
707.79999999999995	256.60000000000002	0	0
703	252.59999999999999	0	0
698	248.40000000000001	0	0
693	244.59999999999999	0	0
688	241.19999999999999	0	0
682.39999999999998	237	0	0
677	233.40000000000001	0	0
672	230	0	0
666	226.59999999999999	0	0
660	223	0	0
654	219.59999999999999	0	0
648	216.19999999999999	0	0
642	213.19999999999999	0	0
636	210.19999999999999	0	0
630	207.59999999999999	0	0
624	205.19999999999999	0	0
618	202.40000000000001	0	0
612	200.40000000000001	0	0
606	198	0	0
600	196	0	0
594	194.19999999999999	0	0
588	192.40000000000001	0	0
582	190.59999999999999	0	0
576	189.19999999999999	0	0
570	187.59999999999999	0	0
564	186.40000000000001	0	0
558	185.19999999999999	0	0
552	184.19999999999999	0	0
546	183.19999999999999	0	0
540	182.59999999999999	0	0
534	182	0	0
528	181	0	0
522	181	0	0
516	180.19999999999999	0	0
510	180	0	0
504	180	0	0
498	180	0	0
492	180	0	0
486	180	0	0
480	181	0	0
474	181	0	0
468	181.80000000000001	0	0
462	182.19999999999999	0	0
456	183	0	0
450	184	0	0
444	185	0	0
438	186	0	0
432	187.19999999999999	0	0
426	188.59999999999999	0	0
420	190.19999999999999	0	0
414	191.80000000000001	0	0
408	193.59999999999999	0	0
402	195.40000000000001	0	0
396	197.40000000000001	0	0
390	199.59999999999999	0	0
384	201.59999999999999	0	0
378	204.19999999999999	0	0
372	206.80000000000001	0	0
366	209.19999999999999	0	0
360	212.19999999999999	0	0
354	215.19999999999999	0	0
348	218.40000000000001	0	0
342	221.80000000000001	0	0
336	225.40000000000001	0	0
330	228.80000000000001	0	0
324	232.59999999999999	0	0
318.39999999999998	236.40000000000001	0	0
312.80000000000001	240.59999999999999	0	0
307	244.59999999999999	0	0
302	248.40000000000001	0	0
297	252.59999999999999	0	0
292.19999999999999	256.60000000000002	0	0
287	261	0	0
282.39999999999998	265.39999999999998	0	0
278	269.60000000000002	0	0
273.19999999999999	274	0	0
268.80000000000001	278.60000000000002	0	0
264.60000000000002	283.19999999999999	0	0
260.19999999999999	288	0	0
255.80000000000001	293	0	0
251.80000000000001	298	0	0
247.59999999999999	303	0	0
243.80000000000001	308	0	0
240	313.60000000000002	0	0
235.80000000000001	319.19999999999999	0	0
232	325	0	0
228.19999999999999	331	0	0
224.80000000000001	337	0	0
221.19999999999999	343	0	0
217.80000000000001	349	0	0
214.80000000000001	355	0	0
211.80000000000001	361	0	0
208.80000000000001	367	0	0
206.40000000000001	373	0	0
203.80000000000001	379	0	0
201.40000000000001	385	0	0
199.19999999999999	391	0	0
197	397	0	0
195	403	0	0
193.40000000000001	409	0	0
191.59999999999999	415	0	0
189.80000000000001	421	0	0
188.40000000000001	427	0	0
187	433	0	0
185.80000000000001	439	0	0
184.80000000000001	445	0	0
183.80000000000001	451	0	0
183	457	0	0
182	463	0	0
181.59999999999999	469	0	0
181	475	0	0
181	481	0	0
270	699	0	0
266	694.39999999999998	0	0
261.39999999999998	690	0	0
257.39999999999998	685	0	0
253.59999999999999	680	0	0
250.19999999999999	675	0	0
246.59999999999999	670	0	0
242.59999999999999	664	0	0
239	658	0	0
235.59999999999999	652	0	0
232.19999999999999	646	0	0
228.80000000000001	640	0	0
225.80000000000001	634	0	0
223.19999999999999	628	0	0
220.40000000000001	622	0	0
218.40000000000001	616	0	0
216.59999999999999	610	0	0
214.40000000000001	604	0	0
212.19999999999999	598	0	0
210.40000000000001	592	0	0
207.40000000000001	586	0	0
205.59999999999999	580	0	0
204.19999999999999	574	0	0
202.59999999999999	568	0	0
201.40000000000001	562	0	0
200.19999999999999	556	0	0
199	550	0	0
198	544	0	0
197.19999999999999	538	0	0
196.80000000000001	532	0	0
196	526	0	0
196	520	0	0
195	514	0	0
195	508	0	0
195	502	0	0
196	496	0	0
196	490	0	0
196.19999999999999	484	0	0
197	478	0	0
196.80000000000001	472	0	0
197	466	0	0
197.59999999999999	460	0	0
198.40000000000001	454	0	0
199.40000000000001	448	0	0
200.40000000000001	442	0	0
201.80000000000001	436	0	0
203.19999999999999	430	0	0
204.59999999999999	424	0	0
206.19999999999999	418	0	0
208	412	0	0
209.59999999999999	406	0	0
211.59999999999999	400	0	0
214	394	0	0
216.19999999999999	388	0	0
219.40000000000001	382.60000000000002	0	0
222.19999999999999	377	0	0
224.80000000000001	371	0	0
227.80000000000001	365	0	0
230.59999999999999	359	0	0
232.80000000000001	353	0	0
236	347	0	0
239.59999999999999	341	0	0
243.40000000000001	335	0	0
247.40000000000001	329	0	0
251.40000000000001	323	0	0
255.19999999999999	318	0	0
259	313	0	0
263	308	0	0
267	303	0	0
271.39999999999998	298	0	0
276	293	0	0
281	288	0	0
286	283.60000000000002	0	0
290.60000000000002	279.60000000000002	0	0
296	274.80000000000001	0	0
301	270.19999999999999	0	0
305.60000000000002	266	0	0
310	261.39999999999998	0	0
315	257.39999999999998	0	0
320	253.59999999999999	0	0
325	250.19999999999999	0	0
330	246.59999999999999	0	0
336	242.59999999999999	0	0
342	239	0	0
348	235.59999999999999	0	0
354	232.19999999999999	0	0
360	228.80000000000001	0	0
366	225.80000000000001	0	0
372	223.19999999999999	0	0
378	220.40000000000001	0	0
384	218.40000000000001	0	0
390	216.59999999999999	0	0
396	214.40000000000001	0	0
402	212.19999999999999	0	0
408	210.40000000000001	0	0
414	207.40000000000001	0	0
420	205.59999999999999	0	0
426	204.19999999999999	0	0
432	202.59999999999999	0	0
438	201.40000000000001	0	0
444	200.19999999999999	0	0
450	199	0	0
456	198	0	0
462	197.19999999999999	0	0
468	196.80000000000001	0	0
474	196	0	0
480	196	0	0
486	195	0	0
492	195	0	0
498	195	0	0
504	196	0	0
510	196	0	0
516	196.19999999999999	0	0
522	197	0	0
528	196.80000000000001	0	0
534	197	0	0
540	197.59999999999999	0	0
546	198.40000000000001	0	0
552	199.40000000000001	0	0
558	200.40000000000001	0	0
564	201.80000000000001	0	0
570	203.19999999999999	0	0
576	204.59999999999999	0	0
582	206.19999999999999	0	0
588	208	0	0
594	209.59999999999999	0	0
600	211.59999999999999	0	0
606	214	0	0
612	216.19999999999999	0	0
617.39999999999998	219.40000000000001	0	0
623	222.19999999999999	0	0
629	224.80000000000001	0	0
635	227.80000000000001	0	0
641	230.59999999999999	0	0
647	232.80000000000001	0	0
653	236	0	0
659	239.59999999999999	0	0
665	243.40000000000001	0	0
671	247.40000000000001	0	0
677	251.40000000000001	0	0
682	255.19999999999999	0	0
687	259	0	0
692	263	0	0
697	267	0	0
702	271.39999999999998	0	0
707	276	0	0
712	281	0	0
716.39999999999998	286	0	0
720.39999999999998	290.60000000000002	0	0
725.20000000000005	296	0	0
729.79999999999995	301	0	0
734	305.60000000000002	0	0
738.60000000000002	310	0	0
742.60000000000002	315	0	0
746.39999999999998	320	0	0
749.79999999999995	325	0	0
753.39999999999998	330	0	0
757.39999999999998	336	0	0
761	342	0	0
764.39999999999998	348	0	0
767.79999999999995	354	0	0
771.20000000000005	360	0	0
774.20000000000005	366	0	0
776.79999999999995	372	0	0
779.60000000000002	378	0	0
781.60000000000002	384	0	0
783.39999999999998	390	0	0
785.60000000000002	396	0	0
787.79999999999995	402	0	0
789.60000000000002	408	0	0
792.60000000000002	414	0	0
794.39999999999998	420	0	0
795.79999999999995	426	0	0
797.39999999999998	432	0	0
798.60000000000002	438	0	0
799.79999999999995	444	0	0
801	450	0	0
802	456	0	0
802.79999999999995	462	0	0
803.20000000000005	468	0	0
804	474	0	0
804	480	0	0
805	486	0	0
805	492	0	0
805	498	0	0
804	504	0	0
804	510	0	0
803.79999999999995	516	0	0
803	522	0	0
803.20000000000005	528	0	0
803	534	0	0
802.39999999999998	540	0	0
801.60000000000002	546	0	0
800.60000000000002	552	0	0
799.60000000000002	558	0	0
798.20000000000005	564	0	0
796.79999999999995	570	0	0
795.39999999999998	576	0	0
793.79999999999995	582	0	0
792	588	0	0
790.39999999999998	594	0	0
788.39999999999998	600	0	0
786	606	0	0
783.79999999999995	612	0	0
780.60000000000002	617.39999999999998	0	0
777.79999999999995	623	0	0
775.20000000000005	629	0	0
772.20000000000005	635	0	0
769.39999999999998	641	0	0
767.20000000000005	647	0	0
764	653	0	0
760.39999999999998	659	0	0
756.60000000000002	665	0	0
752.60000000000002	671	0	0
748.60000000000002	677	0	0
744.79999999999995	682	0	0
741	687	0	0
737	692	0	0
733	697	0	0
728.60000000000002	702	0	0
724	707	0	0
719	712	0	0
714	716.39999999999998	0	0
709.39999999999998	720.39999999999998	0	0
704	725.20000000000005	0	0
699	729.79999999999995	0	0
694.39999999999998	734	0	0
690	738.60000000000002	0	0
685	742.60000000000002	0	0
680	746.39999999999998	0	0
675	749.79999999999995	0	0
670	753.39999999999998	0	0
664	757.39999999999998	0	0
658	761	0	0
652	764.39999999999998	0	0
646	767.79999999999995	0	0
640	771.20000000000005	0	0
634	774.20000000000005	0	0
628	776.79999999999995	0	0
622	779.60000000000002	0	0
616	781.60000000000002	0	0
610	783.39999999999998	0	0
604	785.60000000000002	0	0
598	787.79999999999995	0	0
592	789.60000000000002	0	0
586	792.60000000000002	0	0
580	794.39999999999998	0	0
574	795.79999999999995	0	0
568	797.39999999999998	0	0
562	798.60000000000002	0	0
556	799.79999999999995	0	0
550	801	0	0
544	802	0	0
538	802.79999999999995	0	0
532	803.20000000000005	0	0
526	804	0	0
520	804	0	0
514	805	0	0
508	805	0	0
502	805	0	0
496	804	0	0
490	804	0	0
484	803.79999999999995	0	0
478	803	0	0
472	803.20000000000005	0	0
466	803	0	0
460	802.39999999999998	0	0
454	801.60000000000002	0	0
448	800.60000000000002	0	0
442	799.60000000000002	0	0
436	798.20000000000005	0	0
430	796.79999999999995	0	0
424	795.39999999999998	0	0
418	793.79999999999995	0	0
412	792	0	0
406	790.39999999999998	0	0
400	788.39999999999998	0	0
394	786	0	0
388	783.79999999999995	0	0
382.60000000000002	780.60000000000002	0	0
377	777.79999999999995	0	0
371	775.20000000000005	0	0
365	772.20000000000005	0	0
359	769.39999999999998	0	0
353	767.20000000000005	0	0
347	764	0	0
341	760.39999999999998	0	0
335	756.60000000000002	0	0
329	752.60000000000002	0	0
323	748.60000000000002	0	0
318	744.79999999999995	0	0
313	741	0	0
308	737	0	0
303	733	0	0
298	728.60000000000002	0	0
293	724	0	0
288	719	0	0
283.60000000000002	714	0	0
279.60000000000002	709.39999999999998	0	0
274.80000000000001	704	0	0
456.66666666666669	477	0	0
454	483	0	0
452.19999999999999	489	0	0
451	495	0	0
451	501	0	0
451.39999999999998	507	0	0
452.60000000000002	513	0	0
454.80000000000001	519	0	0
457.80000000000001	525	0	0
461.19999999999999	530	0	0
466	535	0	0
471	539.60000000000002	0	0
477	543.20000000000005	0	0
483	546	0	0
489	547.79999999999995	0	0
495	549	0	0
501	549	0	0
507	548.60000000000002	0	0
513	547.39999999999998	0	0
519	545.20000000000005	0	0
525	542.20000000000005	0	0
530	538.79999999999995	0	0
535	534	0	0
539.60000000000002	529	0	0
543.20000000000005	523	0	0
546	517	0	0
547.79999999999995	511	0	0
549	505	0	0
549	499	0	0
548.60000000000002	493	0	0
547.39999999999998	487	0	0
545.20000000000005	481	0	0
542.20000000000005	475	0	0
538.79999999999995	470	0	0
534	465	0	0
529	460.39999999999998	0	0
523	456.80000000000001	0	0
517	454	0	0
511	452.19999999999999	0	0
505	451	0	0
499	451	0	0
493	451.39999999999998	0	0
487	452.60000000000002	0	0
481	454.80000000000001	0	0
475	457.80000000000001	0	0
470	461.19999999999999	0	0
465	466	0	0
460.39999999999998	471	0	0
244	485	0	0
244	491	0	0
244	497	0	0
244	503	0	0
244	509	0	0
244.19999999999999	515	0	0
245	521	0	0
245.19999999999999	527	0	0
246	533	0	0
247	539	0	0
251	544	0	0
257	544	0	0
263.39999999999998	543.39999999999998	0	0
264	537	0	0
264	531	0	0
264	525	0	0
264	519	0	0
266	513.20000000000005	0	0
272	513	0	0
278	513	0	0
284	513	0	0
290	513	0	0
296	513	0	0
302	513	0	0
308	513	0	0
314	513	0	0
320	513	0	0
326	513	0	0
332	513	0	0
338	513	0	0
344	513	0	0
350	513	0	0
356	513	0	0
362	513	0	0
368	513	0	0
374	513	0	0
380	513	0	0
386	513	0	0
392	513	0	0
398	513	0	0
404	513	0	0
410	513	0	0
416	513	0	0
421.19999999999999	517	0	0
422.60000000000002	523	0	0
421	529.20000000000005	0	0
415	532.79999999999995	0	0
409	536.20000000000005	0	0
403	539.79999999999995	0	0
397	543.60000000000002	0	0
391	547	0	0
385	550.60000000000002	0	0
379	554	0	0
373	557.60000000000002	0	0
367	561	0	0
361	564.60000000000002	0	0
355	568	0	0
349	571.60000000000002	0	0
343	575	0	0
337	578.60000000000002	0	0
331	582	0	0
325	585.60000000000002	0	0
319	589	0	0
313	592.60000000000002	0	0
307	596	0	0
301	599.20000000000005	0	0
295	602.60000000000002	0	0
289.19999999999999	605	0	0
285.80000000000001	600	0	0
282.19999999999999	594	0	0
279	588	0	0
275.80000000000001	582	0	0
269	581.79999999999995	0	0
263	585.20000000000005	0	0
260.60000000000002	591	0	0
263	597	0	0
265.39999999999998	603	0	0
268.19999999999999	609	0	0
271.19999999999999	615	0	0
274.19999999999999	621	0	0
277.39999999999998	627	0	0
281	633	0	0
284.60000000000002	639	0	0
288	644	0	0
291.60000000000002	649	0	0
295.19999999999999	654	0	0
299.19999999999999	659	0	0
303.60000000000002	663.79999999999995	0	0
310	660.60000000000002	0	0
316	657.20000000000005	0	0
315.19999999999999	651	0	0
311.60000000000002	645	0	0
308.19999999999999	639	0	0
304.80000000000001	633	0	0
308	627.20000000000005	0	0
314	623.60000000000002	0	0
319	619.79999999999995	0	0
325	616.39999999999998	0	0
331	612.79999999999995	0	0
337	609.39999999999998	0	0
343	606	0	0
349	602.39999999999998	0	0
355	599	0	0
361	595.60000000000002	0	0
367	592	0	0
373	588.60000000000002	0	0
379	585.20000000000005	0	0
385	581.60000000000002	0	0
391	578.20000000000005	0	0
397	574.79999999999995	0	0
403	571.20000000000005	0	0
409	567.79999999999995	0	0
415	565	0	0
421	561.39999999999998	0	0
427	558	0	0
433	554.39999999999998	0	0
439	553.20000000000005	0	0
444	558	0	0
447.39999999999998	563	0	0
444.39999999999998	569	0	0
440.80000000000001	575	0	0
437.39999999999998	581	0	0
434	587	0	0
431.19999999999999	593	0	0
427.60000000000002	599	0	0
424.19999999999999	605	0	0
420.80000000000001	611	0	0
417.19999999999999	617	0	0
413.80000000000001	623	0	0
410.19999999999999	629	0	0
406.80000000000001	635	0	0
403.19999999999999	641	0	0
399.80000000000001	647	0	0
396.39999999999998	653	0	0
392.80000000000001	659	0	0
389.39999999999998	665	0	0
386	671	0	0
382.39999999999998	677	0	0
378.80000000000001	683	0	0
375.19999999999999	688	0	0
371.80000000000001	694	0	0
365	694.20000000000005	0	0
359	690.60000000000002	0	0
353	687.20000000000005	0	0
347	683.79999999999995	0	0
341.19999999999999	687	0	0
337.80000000000001	693	0	0
339	699.39999999999998	0	0
344	703.20000000000005	0	0
349	707	0	0
354	710.60000000000002	0	0
359	714	0	0
365	717.79999999999995	0	0
371	721.39999999999998	0	0
377	724.79999999999995	0	0
383	727.79999999999995	0	0
389	730.79999999999995	0	0
395	733.79999999999995	0	0
401	736.20000000000005	0	0
407	738.60000000000002	0	0
413.60000000000002	739	0	0
417	733	0	0
420	727	0	0
415	722.79999999999995	0	0
409	719.20000000000005	0	0
403	716	0	0
397	712.79999999999995	0	0
396.80000000000001	706	0	0
400.19999999999999	700	0	0
403.39999999999998	694	0	0
406.80000000000001	688	0	0
410.39999999999998	682	0	0
413.80000000000001	676	0	0
417.39999999999998	670	0	0
420.80000000000001	664	0	0
424.39999999999998	658	0	0
427.80000000000001	652	0	0
431.39999999999998	646	0	0
434.80000000000001	640	0	0
438.39999999999998	634	0	0
441.80000000000001	628	0	0
445.39999999999998	622	0	0
448.80000000000001	616	0	0
452.39999999999998	610	0	0
455.80000000000001	604	0	0
459.60000000000002	598	0	0
463.19999999999999	592	0	0
466.60000000000002	586	0	0
470.19999999999999	580	0	0
476	577	0	0
482	578.60000000000002	0	0
487	582	0	0
487	588	0	0
487	594	0	0
487	600	0	0
487	606	0	0
487	612	0	0
487	618	0	0
487	624	0	0
487	630	0	0
487	636	0	0
487	642	0	0
487	648	0	0
487	654	0	0
487	660	0	0
487	666	0	0
487	672	0	0
487	678	0	0
487	684	0	0
487	690	0	0
487	696	0	0
487	702	0	0
487	708	0	0
487	714	0	0
487	720	0	0
487	726	0	0
487	732	0	0
482	736	0	0
476	736	0	0
470	736	0	0
464	736	0	0
458	736	0	0
456	742	0	0
456	748	0	0
460	753	0	0
466	754	0	0
472	754.60000000000002	0	0
478	755	0	0
484	755.60000000000002	0	0
490	756	0	0
496	756	0	0
502	756	0	0
508	756	0	0
514	756	0	0
520	755	0	0
526	755	0	0
532	754	0	0
538	753.20000000000005	0	0
543.79999999999995	750.79999999999995	0	0
544	744	0	0
544	738	0	0
538	736	0	0
532	736	0	0
526	736	0	0
520	736	0	0
513.60000000000002	734.79999999999995	0	0
513	728	0	0
513	722	0	0
513	716	0	0
513	710	0	0
513	704	0	0
513	698	0	0
513	692	0	0
513	686	0	0
513	680	0	0
513	674	0	0
513	668	0	0
513	662	0	0
513	656	0	0
513	650	0	0
513	644	0	0
513	638	0	0
513	632	0	0
513	626	0	0
513	620	0	0
513	614	0	0
513	608	0	0
513	602	0	0
513	596	0	0
513	590	0	0
513	584	0	0
517	578.79999999999995	0	0
523	577.39999999999998	0	0
529.20000000000005	579	0	0
532.79999999999995	585	0	0
536.20000000000005	591	0	0
539.79999999999995	597	0	0
543.60000000000002	603	0	0
547	609	0	0
550.60000000000002	615	0	0
554	621	0	0
557.60000000000002	627	0	0
561	633	0	0
564.60000000000002	639	0	0
568	645	0	0
571.60000000000002	651	0	0
575	657	0	0
578.60000000000002	663	0	0
582	669	0	0
585.60000000000002	675	0	0
589	681	0	0
592.60000000000002	687	0	0
596	693	0	0
599.20000000000005	699	0	0
602.60000000000002	705	0	0
605	710.79999999999995	0	0
600	714.20000000000005	0	0
594	717.79999999999995	0	0
588	721	0	0
582	724.20000000000005	0	0
581.79999999999995	731	0	0
585.20000000000005	737	0	0
591	739.39999999999998	0	0
597	737	0	0
603	734.60000000000002	0	0
609	731.79999999999995	0	0
615	728.79999999999995	0	0
621	725.79999999999995	0	0
627	722.60000000000002	0	0
633	719	0	0
639	715.39999999999998	0	0
644	712	0	0
649	708.39999999999998	0	0
654	704.79999999999995	0	0
659	700.79999999999995	0	0
663.79999999999995	696.39999999999998	0	0
660.60000000000002	690	0	0
657.20000000000005	684	0	0
651	684.79999999999995	0	0
645	688.39999999999998	0	0
639	691.79999999999995	0	0
633	695.20000000000005	0	0
627.20000000000005	692	0	0
623.60000000000002	686	0	0
619.79999999999995	681	0	0
616.39999999999998	675	0	0
612.79999999999995	669	0	0
609.39999999999998	663	0	0
606	657	0	0
602.39999999999998	651	0	0
599	645	0	0
595.60000000000002	639	0	0
592	633	0	0
588.60000000000002	627	0	0
585.20000000000005	621	0	0
581.60000000000002	615	0	0
578.20000000000005	609	0	0
574.79999999999995	603	0	0
571.20000000000005	597	0	0
567.79999999999995	591	0	0
565	585	0	0
561.39999999999998	579	0	0
558	573	0	0
554.39999999999998	567	0	0
553.20000000000005	561	0	0
558	556	0	0
563	552.60000000000002	0	0
569	555.60000000000002	0	0
575	559.20000000000005	0	0
581	562.60000000000002	0	0
587	566	0	0
593	568.79999999999995	0	0
599	572.39999999999998	0	0
605	575.79999999999995	0	0
611	579.20000000000005	0	0
617	582.79999999999995	0	0
623	586.20000000000005	0	0
629	589.79999999999995	0	0
635	593.20000000000005	0	0
641	596.79999999999995	0	0
647	600.20000000000005	0	0
653	603.60000000000002	0	0
659	607.20000000000005	0	0
665	610.60000000000002	0	0
671	614	0	0
677	617.60000000000002	0	0
683	621.20000000000005	0	0
688	624.79999999999995	0	0
694	628.20000000000005	0	0
694.20000000000005	635	0	0
690.60000000000002	641	0	0
687.20000000000005	647	0	0
683.79999999999995	653	0	0
687	658.79999999999995	0	0
693	662.20000000000005	0	0
699.39999999999998	661	0	0
703.20000000000005	656	0	0
707	651	0	0
710.60000000000002	646	0	0
714	641	0	0
717.79999999999995	635	0	0
721.39999999999998	629	0	0
724.79999999999995	623	0	0
727.79999999999995	617	0	0
730.79999999999995	611	0	0
733.79999999999995	605	0	0
736.20000000000005	599	0	0
738.60000000000002	593	0	0
739	586.39999999999998	0	0
733	583	0	0
727	580	0	0
722.79999999999995	585	0	0
719.20000000000005	591	0	0
716	597	0	0
712.79999999999995	603	0	0
706	603.20000000000005	0	0
700	599.79999999999995	0	0
694	596.60000000000002	0	0
688	593.20000000000005	0	0
682	589.60000000000002	0	0
676	586.20000000000005	0	0
670	582.60000000000002	0	0
664	579.20000000000005	0	0
658	575.60000000000002	0	0
652	572.20000000000005	0	0
646	568.60000000000002	0	0
640	565.20000000000005	0	0
634	561.60000000000002	0	0
628	558.20000000000005	0	0
622	554.60000000000002	0	0
616	551.20000000000005	0	0
610	547.60000000000002	0	0
604	544.20000000000005	0	0
598	540.39999999999998	0	0
592	536.79999999999995	0	0
586	533.39999999999998	0	0
580	529.79999999999995	0	0
577	524	0	0
578.60000000000002	518	0	0
582	513	0	0
588	513	0	0
594	513	0	0
600	513	0	0
606	513	0	0
612	513	0	0
618	513	0	0
624	513	0	0
630	513	0	0
636	513	0	0
642	513	0	0
648	513	0	0
654	513	0	0
660	513	0	0
666	513	0	0
672	513	0	0
678	513	0	0
684	513	0	0
690	513	0	0
696	513	0	0
702	513	0	0
708	513	0	0
714	513	0	0
720	513	0	0
726	513	0	0
732	513	0	0
736	518	0	0
736	524	0	0
736	530	0	0
736	536	0	0
736	542	0	0
742	544	0	0
748	544	0	0
753	540	0	0
754	534	0	0
754.60000000000002	528	0	0
755	522	0	0
755.60000000000002	516	0	0
756	510	0	0
756	504	0	0
756	498	0	0
756	492	0	0
756	486	0	0
755	480	0	0
755	474	0	0
754	468	0	0
753.20000000000005	462	0	0
750.79999999999995	456.19999999999999	0	0
744	456	0	0
738	456	0	0
736	462	0	0
736	468	0	0
736	474	0	0
736	480	0	0
734.79999999999995	486.39999999999998	0	0
728	487	0	0
722	487	0	0
716	487	0	0
710	487	0	0
704	487	0	0
698	487	0	0
692	487	0	0
686	487	0	0
680	487	0	0
674	487	0	0
668	487	0	0
662	487	0	0
656	487	0	0
650	487	0	0
644	487	0	0
638	487	0	0
632	487	0	0
626	487	0	0
620	487	0	0
614	487	0	0
608	487	0	0
602	487	0	0
596	487	0	0
590	487	0	0
584	487	0	0
578.79999999999995	483	0	0
577.39999999999998	477	0	0
579	470.80000000000001	0	0
585	467.19999999999999	0	0
591	463.80000000000001	0	0
597	460.19999999999999	0	0
603	456.39999999999998	0	0
609	453	0	0
615	449.39999999999998	0	0
621	446	0	0
627	442.39999999999998	0	0
633	439	0	0
639	435.39999999999998	0	0
645	432	0	0
651	428.39999999999998	0	0
657	425	0	0
663	421.39999999999998	0	0
669	418	0	0
675	414.39999999999998	0	0
681	411	0	0
687	407.39999999999998	0	0
693	404	0	0
699	400.80000000000001	0	0
705	397.39999999999998	0	0
710.79999999999995	395	0	0
714.20000000000005	400	0	0
717.79999999999995	406	0	0
721	412	0	0
724.20000000000005	418	0	0
731	418.19999999999999	0	0
737	414.80000000000001	0	0
739.39999999999998	409	0	0
737	403	0	0
734.60000000000002	397	0	0
731.79999999999995	391	0	0
728.79999999999995	385	0	0
725.79999999999995	379	0	0
722.60000000000002	373	0	0
719	367	0	0
715.39999999999998	361	0	0
712	356	0	0
708.39999999999998	351	0	0
704.79999999999995	346	0	0
700.79999999999995	341	0	0
696.39999999999998	336.19999999999999	0	0
690	339.39999999999998	0	0
684	342.80000000000001	0	0
684.79999999999995	349	0	0
688.39999999999998	355	0	0
691.79999999999995	361	0	0
695.20000000000005	367	0	0
692	372.80000000000001	0	0
686	376.39999999999998	0	0
681	380.19999999999999	0	0
675	383.60000000000002	0	0
669	387.19999999999999	0	0
663	390.60000000000002	0	0
657	394	0	0
651	397.60000000000002	0	0
645	401	0	0
639	404.39999999999998	0	0
633	408	0	0
627	411.39999999999998	0	0
621	414.80000000000001	0	0
615	418.39999999999998	0	0
609	421.80000000000001	0	0
603	425.19999999999999	0	0
597	428.80000000000001	0	0